<?xml version="1.0" encoding="UTF-8"?>

<!-- generated on 2025-04-25 15:47:07 by Eclipse SUMO duarouter Version v1_22_0+1463-c016901e941
<duarouterConfiguration xmlns:xsi="http://www.w3.org/2001/XMLSchema-instance" xsi:noNamespaceSchemaLocation="http://sumo.dlr.de/xsd/duarouterConfiguration.xsd">

    <input>
        <net-file value="src/net/grid5x5.net.xml"/>
        <route-files value="src/net/random_trips.trips.xml"/>
    </input>

    <output>
        <output-file value="src/net/grid5x5.rou.xml"/>
    </output>

    <report>
        <ignore-errors value="true"/>
    </report>

</duarouterConfiguration>
-->

<routes xmlns:xsi="http://www.w3.org/2001/XMLSchema-instance" xsi:noNamespaceSchemaLocation="http://sumo.dlr.de/xsd/routes_file.xsd">
    <vehicle id="953" depart="0.03">
        <route edges="A2A3 A3B3 B3C3 C3D3 D3E3 E3E2 E2E1 E1E0"/>
    </vehicle>
    <vehicle id="1449" depart="1.00">
        <route edges="D3D4 D4C4 C4B4 B4A4 A4A3 A3A2 A2A1 A1A0"/>
    </vehicle>
    <vehicle id="205" depart="2.48">
        <route edges="B3A3 A3A2 A2A1 A1A0 A0B0 B0C0 C0C1"/>
    </vehicle>
    <vehicle id="817" depart="2.54">
        <route edges="A0A1 A1A2 A2A3 A3B3 B3C3 C3D3 D3D2"/>
    </vehicle>
    <vehicle id="41" depart="2.85">
        <route edges="C0B0 B0B1 B1B2 B2B3 B3A3 A3A2"/>
    </vehicle>
    <vehicle id="727" depart="2.87">
        <route edges="C1B1 B1B2 B2C2 C2D2 D2E2 E2D2"/>
    </vehicle>
    <vehicle id="229" depart="2.97">
        <route edges="B1B2 B2B1 B1B0"/>
    </vehicle>
    <vehicle id="991" depart="3.66">
        <route edges="B3A3 A3A2 A2B2 B2C2 C2C3"/>
    </vehicle>
    <vehicle id="320" depart="3.98">
        <route edges="C3C4 C4D4 D4D3 D3D2 D2D1"/>
    </vehicle>
    <vehicle id="747" depart="4.17">
        <route edges="D0E0 E0E1 E1E2 E2E3 E3D3 D3C3 C3B3 B3A3 A3A4 A4B4"/>
    </vehicle>
    <vehicle id="689" depart="4.73">
        <route edges="A1B1 B1C1 C1C2 C2C3 C3C4 C4B4"/>
    </vehicle>
    <vehicle id="1041" depart="4.76">
        <route edges="B1B0 B0C0 C0D0 D0E0 E0E1 E1E2"/>
    </vehicle>
    <vehicle id="1000" depart="6.36">
        <route edges="A0A1 A1A2 A2A3 A3B3 B3C3 C3C4"/>
    </vehicle>
    <vehicle id="1490" depart="6.62">
        <route edges="E3E4 E4D4 D4C4 C4B4 B4A4 A4A3 A3A2 A2A1 A1B1"/>
    </vehicle>
    <vehicle id="500" depart="7.13">
        <route edges="C4B4 B4B3 B3B2 B2A2 A2A3"/>
    </vehicle>
    <vehicle id="1154" depart="7.26">
        <route edges="C1C2 C2B2 B2C2"/>
    </vehicle>
    <vehicle id="130" depart="7.60">
        <route edges="E3E4 E4D4 D4C4"/>
    </vehicle>
    <vehicle id="977" depart="7.80">
        <route edges="C2D2 D2C2 C2B2 B2B3"/>
    </vehicle>
    <vehicle id="260" depart="7.95">
        <route edges="A1B1 B1C1 C1D1 D1D2 D2D3 D3C3"/>
    </vehicle>
    <vehicle id="1442" depart="8.06">
        <route edges="D1D2 D2C2 C2B2 B2B3 B3B4 B4C4"/>
    </vehicle>
    <vehicle id="567" depart="8.57">
        <route edges="B3B2 B2C2 C2C3 C3D3 D3E3 E3E2"/>
    </vehicle>
    <vehicle id="364" depart="8.79">
        <route edges="C3C2 C2D2 D2E2"/>
    </vehicle>
    <vehicle id="380" depart="9.06">
        <route edges="B0A0 A0A1 A1A2 A2A3 A3A4 A4B4 B4C4"/>
    </vehicle>
    <vehicle id="7" depart="9.38">
        <route edges="D0E0 E0E1 E1D1 D1C1 C1C0 C0B0"/>
    </vehicle>
    <vehicle id="45" depart="9.52">
        <route edges="E3D3 D3D2 D2D1 D1D0"/>
    </vehicle>
    <vehicle id="61" depart="10.14">
        <route edges="A3A4 A4B4 B4B3 B3B2 B2B1 B1A1"/>
    </vehicle>
    <vehicle id="968" depart="10.60">
        <route edges="D3C3 C3D3 D3D2"/>
    </vehicle>
    <vehicle id="1279" depart="10.94">
        <route edges="D0E0 E0E1 E1E2 E2E3 E3E4 E4D4 D4C4 C4B4"/>
    </vehicle>
    <vehicle id="713" depart="11.16">
        <route edges="C2C3 C3C2 C2C1 C1C0 C0B0 B0B1"/>
    </vehicle>
    <vehicle id="899" depart="11.58">
        <route edges="D0D1 D1D0 D0C0"/>
    </vehicle>
    <vehicle id="772" depart="11.71">
        <route edges="C2B2 B2C2 C2D2 D2E2 E2E1"/>
    </vehicle>
    <vehicle id="651" depart="12.71">
        <route edges="C2B2 B2A2 A2A3 A3B3"/>
    </vehicle>
    <vehicle id="613" depart="12.72">
        <route edges="D2C2 C2C1 C1C0 C0D0 D0E0 E0E1"/>
    </vehicle>
    <vehicle id="701" depart="12.83">
        <route edges="D1E1"/>
    </vehicle>
    <vehicle id="207" depart="12.89">
        <route edges="B3B4 B4C4 C4D4 D4E4"/>
    </vehicle>
    <vehicle id="811" depart="13.01">
        <route edges="D1C1 C1C0 C0B0 B0B1"/>
    </vehicle>
    <vehicle id="161" depart="13.33">
        <route edges="D1D2 D2C2 C2C3 C3C4"/>
    </vehicle>
    <vehicle id="804" depart="13.65">
        <route edges="E2E1 E1D1 D1D2 D2D3 D3D4 D4E4 E4E3"/>
    </vehicle>
    <vehicle id="1062" depart="13.86">
        <route edges="A3B3 B3C3 C3D3 D3E3 E3E2 E2D2"/>
    </vehicle>
    <vehicle id="1030" depart="14.01">
        <route edges="B2B1 B1B2 B2B3 B3B2"/>
    </vehicle>
    <vehicle id="756" depart="14.08">
        <route edges="D1E1 E1D1 D1C1 C1B1 B1A1 A1B1"/>
    </vehicle>
    <vehicle id="78" depart="14.39">
        <route edges="C1C2 C2D2 D2D1 D1D0 D0D1"/>
    </vehicle>
    <vehicle id="349" depart="15.50">
        <route edges="A1A2 A2B2 B2B1 B1A1"/>
    </vehicle>
    <vehicle id="451" depart="15.74">
        <route edges="E4D4 D4D3 D3D2 D2E2 E2E1"/>
    </vehicle>
    <vehicle id="879" depart="16.17">
        <route edges="D2C2 C2C3 C3C4 C4B4 B4B3"/>
    </vehicle>
    <vehicle id="873" depart="16.56">
        <route edges="B2C2 C2D2 D2D1 D1D0 D0E0 E0E1"/>
    </vehicle>
    <vehicle id="243" depart="16.57">
        <route edges="D0E0 E0E1 E1E0"/>
    </vehicle>
    <vehicle id="1236" depart="16.62">
        <route edges="B2C2 C2C3 C3C4 C4D4 D4D3"/>
    </vehicle>
    <vehicle id="521" depart="16.84">
        <route edges="C3C4 C4C3 C3C2"/>
    </vehicle>
    <vehicle id="490" depart="16.98">
        <route edges="D3D2 D2D3 D3D4 D4E4 E4E3"/>
    </vehicle>
    <vehicle id="541" depart="17.24">
        <route edges="B1C1 C1D1 D1E1 E1D1"/>
    </vehicle>
    <vehicle id="37" depart="17.75">
        <route edges="A0B0 B0B1 B1B2 B2B3 B3A3 A3A4 A4B4"/>
    </vehicle>
    <vehicle id="749" depart="18.02">
        <route edges="B0B1 B1B0"/>
    </vehicle>
    <vehicle id="722" depart="19.11">
        <route edges="B4A4 A4A3 A3B3 B3C3 C3C2"/>
    </vehicle>
    <vehicle id="1321" depart="19.12">
        <route edges="D1D2 D2E2 E2E1 E1E0 E0D0"/>
    </vehicle>
    <vehicle id="574" depart="19.13">
        <route edges="A2A3 A3B3 B3C3 C3D3"/>
    </vehicle>
    <vehicle id="1418" depart="19.23">
        <route edges="B0C0 C0C1 C1C2 C2C3 C3B3 B3A3 A3A4"/>
    </vehicle>
    <vehicle id="532" depart="19.43">
        <route edges="C2B2 B2C2 C2C3"/>
    </vehicle>
    <vehicle id="738" depart="19.50">
        <route edges="B2A2 A2A1 A1A0 A0B0 B0C0 C0D0 D0D1"/>
    </vehicle>
    <vehicle id="690" depart="19.58">
        <route edges="A4A3 A3A2 A2B2 B2C2 C2D2 D2E2"/>
    </vehicle>
    <vehicle id="1421" depart="20.24">
        <route edges="E1E0 E0D0 D0C0 C0B0 B0B1 B1A1 A1A0"/>
    </vehicle>
    <vehicle id="848" depart="21.44">
        <route edges="B1C1 C1D1 D1D0 D0E0"/>
    </vehicle>
    <vehicle id="417" depart="22.26">
        <route edges="D1C1 C1D1"/>
    </vehicle>
    <vehicle id="302" depart="22.32">
        <route edges="D4E4 E4E3 E3D3 D3C3 C3C4 C4B4 B4B3"/>
    </vehicle>
    <vehicle id="750" depart="22.54">
        <route edges="C4C3 C3C2 C2C1 C1C0 C0B0 B0B1"/>
    </vehicle>
    <vehicle id="586" depart="22.91">
        <route edges="B1A1 A1B1 B1B0"/>
    </vehicle>
    <vehicle id="453" depart="22.99">
        <route edges="D1D0 D0C0 C0B0 B0B1 B1B2 B2B3 B3B4"/>
    </vehicle>
    <vehicle id="263" depart="22.99">
        <route edges="A2A3 A3B3 B3B2 B2C2 C2D2"/>
    </vehicle>
    <vehicle id="77" depart="23.29">
        <route edges="B2A2 A2A1 A1B1 B1C1 C1D1 D1E1 E1E0 E0D0"/>
    </vehicle>
    <vehicle id="1292" depart="23.33">
        <route edges="D0C0 C0B0 B0B1 B1A1 A1A0"/>
    </vehicle>
    <vehicle id="967" depart="23.35">
        <route edges="A2B2 B2C2 C2D2 D2D1 D1D0 D0C0"/>
    </vehicle>
    <vehicle id="158" depart="23.55">
        <route edges="E2D2 D2D1 D1D0"/>
    </vehicle>
    <vehicle id="316" depart="23.91">
        <route edges="E2E1 E1D1 D1D2 D2C2"/>
    </vehicle>
    <vehicle id="1281" depart="24.42">
        <route edges="A0B0 B0B1 B1B2 B2B3 B3B2"/>
    </vehicle>
    <vehicle id="538" depart="24.43">
        <route edges="D2D1 D1C1 C1B1 B1A1 A1A2 A2A3"/>
    </vehicle>
    <vehicle id="545" depart="24.45">
        <route edges="A2A1 A1B1 B1C1 C1D1 D1D2 D2D3 D3D4 D4E4 E4E3"/>
    </vehicle>
    <vehicle id="341" depart="24.84">
        <route edges="D3C3 C3C2 C2C1 C1C0 C0B0 B0B1"/>
    </vehicle>
    <vehicle id="1034" depart="25.24">
        <route edges="C3C2 C2D2 D2D3 D3E3"/>
    </vehicle>
    <vehicle id="1045" depart="25.48">
        <route edges="C3D3"/>
    </vehicle>
    <vehicle id="458" depart="25.68">
        <route edges="C1D1 D1E1"/>
    </vehicle>
    <vehicle id="402" depart="25.83">
        <route edges="D4D3 D3E3 E3E2 E2D2"/>
    </vehicle>
    <vehicle id="1121" depart="26.22">
        <route edges="A1A0 A0B0 B0C0 C0D0 D0E0 E0E1 E1E2 E2E3"/>
    </vehicle>
    <vehicle id="141" depart="26.30">
        <route edges="C1D1 D1E1 E1E0 E0D0"/>
    </vehicle>
    <vehicle id="404" depart="26.34">
        <route edges="B2B1 B1B2 B2B3 B3C3 C3C2"/>
    </vehicle>
    <vehicle id="663" depart="26.87">
        <route edges="E2E1 E1D1"/>
    </vehicle>
    <vehicle id="904" depart="27.06">
        <route edges="D2D1 D1C1 C1B1 B1B2 B2B3 B3A3 A3A2"/>
    </vehicle>
    <vehicle id="976" depart="27.61">
        <route edges="A3A4 A4B4"/>
    </vehicle>
    <vehicle id="164" depart="28.38">
        <route edges="C3B3 B3B2 B2B1 B1A1 A1A2"/>
    </vehicle>
    <vehicle id="1235" depart="28.54">
        <route edges="D4E4"/>
    </vehicle>
    <vehicle id="768" depart="28.54">
        <route edges="D4E4 E4E3 E3E4 E4D4"/>
    </vehicle>
    <vehicle id="156" depart="29.16">
        <route edges="B3B2 B2B1 B1C1"/>
    </vehicle>
    <vehicle id="177" depart="29.58">
        <route edges="B4A4 A4A3 A3B3 B3C3 C3D3 D3D4"/>
    </vehicle>
    <vehicle id="351" depart="29.92">
        <route edges="A1A2 A2B2 B2C2 C2D2 D2E2"/>
    </vehicle>
    <vehicle id="1333" depart="30.12">
        <route edges="E0E1 E1D1 D1D0 D0C0"/>
    </vehicle>
    <vehicle id="716" depart="30.25">
        <route edges="B3B4 B4C4 C4D4 D4D3 D3D2 D2D1 D1C1"/>
    </vehicle>
    <vehicle id="301" depart="30.33">
        <route edges="B3C3 C3C2 C2C1 C1C2"/>
    </vehicle>
    <vehicle id="943" depart="30.65">
        <route edges="E1E0 E0D0 D0C0 C0C1 C1C2 C2C3 C3B3 B3B2"/>
    </vehicle>
    <vehicle id="1093" depart="30.77">
        <route edges="B4C4 C4D4 D4E4"/>
    </vehicle>
    <vehicle id="1247" depart="31.06">
        <route edges="D1C1 C1B1 B1A1 A1A0 A0B0"/>
    </vehicle>
    <vehicle id="1482" depart="32.00">
        <route edges="E2E3 E3D3 D3C3 C3D3"/>
    </vehicle>
    <vehicle id="358" depart="32.74">
        <route edges="E4E3 E3E2 E2E1 E1D1 D1D0 D0E0"/>
    </vehicle>
    <vehicle id="588" depart="33.17">
        <route edges="D1D2 D2C2 C2B2 B2A2"/>
    </vehicle>
    <vehicle id="277" depart="33.42">
        <route edges="B4B3 B3A3 A3A4 A4B4"/>
    </vehicle>
    <vehicle id="96" depart="33.53">
        <route edges="B1B2 B2B1"/>
    </vehicle>
    <vehicle id="239" depart="34.05">
        <route edges="E4D4 D4C4 C4B4 B4B3 B3B2 B2B1 B1C1"/>
    </vehicle>
    <vehicle id="1403" depart="34.40">
        <route edges="D4E4 E4E3 E3D3 D3D4 D4C4 C4C3"/>
    </vehicle>
    <vehicle id="1239" depart="34.46">
        <route edges="E3D3 D3C3 C3B3 B3A3 A3A4 A4B4"/>
    </vehicle>
    <vehicle id="487" depart="35.42">
        <route edges="B2B3 B3B2 B2C2"/>
    </vehicle>
    <vehicle id="1162" depart="35.76">
        <route edges="D0E0 E0E1 E1D1 D1C1 C1C0 C0D0"/>
    </vehicle>
    <vehicle id="975" depart="36.10">
        <route edges="B2B1 B1C1 C1D1 D1E1 E1D1"/>
    </vehicle>
    <vehicle id="777" depart="36.34">
        <route edges="B4B3 B3B2 B2B1 B1A1 A1A0"/>
    </vehicle>
    <vehicle id="484" depart="36.85">
        <route edges="D1C1 C1B1 B1B2 B2B3 B3C3"/>
    </vehicle>
    <vehicle id="30" depart="37.08">
        <route edges="D4D3 D3D2 D2D1 D1D0"/>
    </vehicle>
    <vehicle id="1431" depart="37.28">
        <route edges="A1B1 B1C1 C1C0 C0D0"/>
    </vehicle>
    <vehicle id="1198" depart="37.52">
        <route edges="C2C1 C1B1 B1B2 B2B3 B3B4 B4A4"/>
    </vehicle>
    <vehicle id="1164" depart="37.65">
        <route edges="E3D3 D3D2 D2C2 C2C3"/>
    </vehicle>
    <vehicle id="128" depart="38.17">
        <route edges="A3A2 A2B2 B2C2 C2B2"/>
    </vehicle>
    <vehicle id="568" depart="38.27">
        <route edges="C0D0 D0D1 D1C1 C1B1 B1A1 A1A2 A2B2"/>
    </vehicle>
    <vehicle id="62" depart="38.61">
        <route edges="B2B1 B1C1 C1D1 D1E1 E1E2 E2E3"/>
    </vehicle>
    <vehicle id="254" depart="39.36">
        <route edges="E0E1 E1E2 E2E3 E3E4 E4D4 D4C4 C4B4"/>
    </vehicle>
    <vehicle id="646" depart="40.16">
        <route edges="C2C1 C1C2 C2C3 C3D3"/>
    </vehicle>
    <vehicle id="1146" depart="40.67">
        <route edges="D0D1 D1C1 C1B1 B1A1 A1A0"/>
    </vehicle>
    <vehicle id="771" depart="41.55">
        <route edges="D1C1 C1C2 C2C3 C3D3 D3D2"/>
    </vehicle>
    <vehicle id="845" depart="41.64">
        <route edges="B0A0 A0A1 A1A2 A2A3 A3A4 A4B4 B4C4 C4D4"/>
    </vehicle>
    <vehicle id="970" depart="41.84">
        <route edges="A3A4 A4B4 B4C4 C4C3 C3D3 D3D4"/>
    </vehicle>
    <vehicle id="83" depart="41.89">
        <route edges="C1B1 B1B0 B0A0 A0A1"/>
    </vehicle>
    <vehicle id="1051" depart="42.19">
        <route edges="A3B3 B3B2 B2B1 B1C1 C1C2"/>
    </vehicle>
    <vehicle id="337" depart="43.34">
        <route edges="C2C3 C3D3 D3E3 E3E2 E2D2"/>
    </vehicle>
    <vehicle id="631" depart="43.36">
        <route edges="D0C0 C0C1 C1B1 B1B0"/>
    </vehicle>
    <vehicle id="1222" depart="43.44">
        <route edges="D4D3 D3E3 E3E4"/>
    </vehicle>
    <vehicle id="1326" depart="43.55">
        <route edges="C0C1 C1B1 B1B0 B0A0"/>
    </vehicle>
    <vehicle id="1487" depart="44.43">
        <route edges="A3B3 B3A3 A3A4 A4B4"/>
    </vehicle>
    <vehicle id="1067" depart="45.12">
        <route edges="C0D0 D0E0 E0E1 E1E2 E2E3"/>
    </vehicle>
    <vehicle id="123" depart="45.17">
        <route edges="B4B3 B3B4 B4C4"/>
    </vehicle>
    <vehicle id="1072" depart="45.34">
        <route edges="D3D2 D2C2 C2C3 C3C4 C4B4"/>
    </vehicle>
    <vehicle id="582" depart="45.83">
        <route edges="D2D1 D1C1 C1B1 B1B2 B2B3 B3C3"/>
    </vehicle>
    <vehicle id="929" depart="46.32">
        <route edges="D0D1 D1C1 C1B1 B1B2 B2B3 B3B4"/>
    </vehicle>
    <vehicle id="159" depart="46.65">
        <route edges="E0D0 D0E0"/>
    </vehicle>
    <vehicle id="1313" depart="47.19">
        <route edges="E3E4 E4D4 D4D3 D3D2 D2E2 E2E3"/>
    </vehicle>
    <vehicle id="213" depart="47.21">
        <route edges="C1D1 D1E1 E1E0 E0D0"/>
    </vehicle>
    <vehicle id="1427" depart="47.85">
        <route edges="A0B0 B0C0 C0D0 D0E0 E0E1 E1E2 E2E3"/>
    </vehicle>
    <vehicle id="179" depart="48.00">
        <route edges="D4C4 C4C3 C3D3 D3E3"/>
    </vehicle>
    <vehicle id="581" depart="48.12">
        <route edges="A1B1 B1C1 C1D1 D1D2 D2D3 D3D4 D4E4 E4E3"/>
    </vehicle>
    <vehicle id="1126" depart="48.19">
        <route edges="B0A0 A0A1 A1B1 B1C1 C1D1 D1E1 E1E2"/>
    </vehicle>
    <vehicle id="905" depart="48.28">
        <route edges="C3B3 B3B2 B2C2 C2D2 D2E2 E2E1 E1D1"/>
    </vehicle>
    <vehicle id="1008" depart="48.44">
        <route edges="C0C1 C1C2 C2C3 C3D3"/>
    </vehicle>
    <vehicle id="32" depart="48.74">
        <route edges="A4B4 B4C4 C4D4 D4D3 D3D2 D2D1 D1D0 D0C0"/>
    </vehicle>
    <vehicle id="269" depart="48.77">
        <route edges="C2D2 D2D1 D1C1 C1C2"/>
    </vehicle>
    <vehicle id="1022" depart="49.10">
        <route edges="D4D3 D3D2 D2D1 D1C1 C1B1 B1A1 A1A2"/>
    </vehicle>
    <vehicle id="1123" depart="49.30">
        <route edges="C2C3 C3D3 D3D2 D2D1 D1C1"/>
    </vehicle>
    <vehicle id="946" depart="49.64">
        <route edges="E0D0 D0C0"/>
    </vehicle>
    <vehicle id="225" depart="49.73">
        <route edges="E4E3 E3D3 D3C3 C3B3 B3A3"/>
    </vehicle>
    <vehicle id="1286" depart="49.93">
        <route edges="A4A3 A3B3 B3B2 B2B1 B1B0 B0A0 A0A1"/>
    </vehicle>
    <vehicle id="1346" depart="50.33">
        <route edges="A2A3 A3B3"/>
    </vehicle>
    <vehicle id="377" depart="50.54">
        <route edges="B3C3 C3D3 D3E3 E3E2 E2D2"/>
    </vehicle>
    <vehicle id="21" depart="50.63">
        <route edges="D1D2 D2E2 E2E1 E1E0 E0D0"/>
    </vehicle>
    <vehicle id="424" depart="53.37">
        <route edges="D4D3 D3D2 D2E2"/>
    </vehicle>
    <vehicle id="400" depart="53.54">
        <route edges="D4D3 D3E3 E3D3"/>
    </vehicle>
    <vehicle id="1104" depart="53.89">
        <route edges="B3A3 A3A2 A2B2 B2C2 C2C1"/>
    </vehicle>
    <vehicle id="1244" depart="54.45">
        <route edges="E4E3 E3D3 D3C3 C3C4"/>
    </vehicle>
    <vehicle id="107" depart="54.51">
        <route edges="B1C1 C1C2 C2C3 C3C4 C4D4"/>
    </vehicle>
    <vehicle id="1325" depart="54.58">
        <route edges="A4A3 A3B3 B3C3 C3D3 D3E3"/>
    </vehicle>
    <vehicle id="823" depart="54.65">
        <route edges="A3A2 A2A1 A1B1 B1C1 C1D1 D1E1 E1E0 E0D0"/>
    </vehicle>
    <vehicle id="242" depart="54.66">
        <route edges="E2E1 E1D1 D1D2 D2E2"/>
    </vehicle>
    <vehicle id="408" depart="54.70">
        <route edges="C4C3 C3D3 D3C3"/>
    </vehicle>
    <vehicle id="980" depart="54.83">
        <route edges="D1D0 D0C0 C0B0 B0A0 A0A1 A1A2"/>
    </vehicle>
    <vehicle id="744" depart="54.86">
        <route edges="B1A1 A1A2 A2A3 A3B3 B3C3 C3D3 D3D4 D4C4"/>
    </vehicle>
    <vehicle id="11" depart="55.11">
        <route edges="E0D0 D0D1 D1D2 D2E2 E2E3 E3D3"/>
    </vehicle>
    <vehicle id="808" depart="55.37">
        <route edges="C1D1 D1D2 D2C2 C2B2 B2B3"/>
    </vehicle>
    <vehicle id="840" depart="56.03">
        <route edges="D1D2 D2C2 C2B2 B2B1 B1C1"/>
    </vehicle>
    <vehicle id="647" depart="56.71">
        <route edges="D4C4 C4C3 C3C2 C2C1 C1D1"/>
    </vehicle>
    <vehicle id="452" depart="57.33">
        <route edges="B2A2 A2A3 A3B3 B3B2"/>
    </vehicle>
    <vehicle id="1276" depart="57.74">
        <route edges="E1E0 E0D0 D0D1 D1D2 D2E2 E2E3 E3D3"/>
    </vehicle>
    <vehicle id="244" depart="58.17">
        <route edges="A2B2 B2C2 C2C3"/>
    </vehicle>
    <vehicle id="496" depart="58.40">
        <route edges="B2C2 C2C3 C3C4 C4D4 D4D3"/>
    </vehicle>
    <vehicle id="435" depart="58.54">
        <route edges="D0E0 E0E1 E1D1 D1C1 C1C0 C0D0"/>
    </vehicle>
    <vehicle id="1344" depart="58.89">
        <route edges="B3B4 B4B3 B3B2 B2B3"/>
    </vehicle>
    <vehicle id="1004" depart="59.18">
        <route edges="B2B1 B1C1"/>
    </vehicle>
    <vehicle id="492" depart="59.18">
        <route edges="E0D0 D0E0 E0E1"/>
    </vehicle>
    <vehicle id="6" depart="59.81">
        <route edges="C3D3 D3C3 C3C4 C4D4"/>
    </vehicle>
    <vehicle id="847" depart="59.95">
        <route edges="D3E3 E3D3 D3C3 C3B3 B3C3"/>
    </vehicle>
    <vehicle id="290" depart="60.05">
        <route edges="D4D3 D3D2 D2C2 C2C1 C1C0 C0D0"/>
    </vehicle>
    <vehicle id="907" depart="60.19">
        <route edges="D4D3 D3C3 C3B3 B3B2 B2C2"/>
    </vehicle>
    <vehicle id="705" depart="60.44">
        <route edges="D3C3 C3C4 C4D4 D4C4"/>
    </vehicle>
    <vehicle id="314" depart="60.95">
        <route edges="D1E1 E1E0 E0D0 D0D1"/>
    </vehicle>
    <vehicle id="1002" depart="61.07">
        <route edges="E1E0 E0D0 D0C0 C0B0 B0A0 A0A1 A1A2 A2B2"/>
    </vehicle>
    <vehicle id="1079" depart="61.21">
        <route edges="B0C0 C0C1 C1D1 D1E1"/>
    </vehicle>
    <vehicle id="1391" depart="61.45">
        <route edges="A0B0 B0B1 B1B2 B2B3 B3C3 C3C2"/>
    </vehicle>
    <vehicle id="1105" depart="61.52">
        <route edges="E3D3 D3D2 D2C2 C2C3"/>
    </vehicle>
    <vehicle id="1351" depart="61.87">
        <route edges="C3C2 C2B2 B2B3 B3B4 B4A4 A4A3"/>
    </vehicle>
    <vehicle id="1389" depart="62.63">
        <route edges="C2C1 C1B1 B1A1 A1B1"/>
    </vehicle>
    <vehicle id="27" depart="63.35">
        <route edges="B3C3 C3B3 B3B4"/>
    </vehicle>
    <vehicle id="46" depart="63.41">
        <route edges="C1C2 C2D2 D2D1 D1D0"/>
    </vehicle>
    <vehicle id="171" depart="64.25">
        <route edges="E3E2 E2D2 D2C2 C2B2 B2A2 A2A1"/>
    </vehicle>
    <vehicle id="275" depart="65.14">
        <route edges="D4D3 D3C3 C3B3 B3B2 B2B1"/>
    </vehicle>
    <vehicle id="206" depart="65.66">
        <route edges="B3A3 A3B3 B3C3 C3D3 D3E3"/>
    </vehicle>
    <vehicle id="415" depart="65.69">
        <route edges="B3C3 C3D3 D3E3 E3E2 E2E1 E1E0"/>
    </vehicle>
    <vehicle id="763" depart="65.84">
        <route edges="D2C2"/>
    </vehicle>
    <vehicle id="779" depart="65.88">
        <route edges="B2A2 A2A3 A3B3 B3B2"/>
    </vehicle>
    <vehicle id="121" depart="65.96">
        <route edges="C3C4 C4B4 B4A4 A4A3 A3A2 A2B2"/>
    </vehicle>
    <vehicle id="152" depart="66.02">
        <route edges="D3E3 E3E2 E2D2 D2C2 C2C3"/>
    </vehicle>
    <vehicle id="1424" depart="66.35">
        <route edges="A0B0 B0C0 C0C1 C1C2 C2C3 C3B3"/>
    </vehicle>
    <vehicle id="299" depart="66.53">
        <route edges="C3D3 D3D4 D4C4"/>
    </vehicle>
    <vehicle id="1064" depart="66.79">
        <route edges="A3A4 A4B4 B4B3 B3A3 A3A2"/>
    </vehicle>
    <vehicle id="279" depart="67.48">
        <route edges="B2C2 C2C3 C3B3 B3B2"/>
    </vehicle>
    <vehicle id="961" depart="67.75">
        <route edges="A3A2 A2B2 B2B3 B3C3 C3D3"/>
    </vehicle>
    <vehicle id="1499" depart="67.99">
        <route edges="D1C1 C1B1 B1A1 A1A0"/>
    </vehicle>
    <vehicle id="1312" depart="68.34">
        <route edges="B4C4 C4C3 C3B3 B3C3"/>
    </vehicle>
    <vehicle id="1454" depart="68.85">
        <route edges="C3D3 D3D2 D2E2 E2E3"/>
    </vehicle>
    <vehicle id="1438" depart="69.09">
        <route edges="D2D1 D1C1 C1C2 C2C3 C3C2"/>
    </vehicle>
    <vehicle id="1397" depart="69.28">
        <route edges="B3B2 B2A2"/>
    </vehicle>
    <vehicle id="931" depart="69.41">
        <route edges="B0B1 B1C1 C1D1 D1E1 E1D1"/>
    </vehicle>
    <vehicle id="1027" depart="69.49">
        <route edges="B0B1 B1C1 C1C0"/>
    </vehicle>
    <vehicle id="1096" depart="69.95">
        <route edges="C1C2 C2C3 C3D3 D3D4 D4C4"/>
    </vehicle>
    <vehicle id="1189" depart="70.30">
        <route edges="B0B1 B1B2 B2B3 B3B4 B4C4"/>
    </vehicle>
    <vehicle id="191" depart="70.78">
        <route edges="A4B4 B4C4 C4D4 D4E4 E4E3 E3E2"/>
    </vehicle>
    <vehicle id="990" depart="71.59">
        <route edges="E3E2 E2D2 D2C2 C2B2 B2B3 B3B4"/>
    </vehicle>
    <vehicle id="507" depart="71.84">
        <route edges="D2D1 D1C1 C1B1 B1B0"/>
    </vehicle>
    <vehicle id="580" depart="71.96">
        <route edges="D1C1 C1C2 C2C3 C3D3 D3E3 E3E2"/>
    </vehicle>
    <vehicle id="828" depart="72.13">
        <route edges="C2C1 C1B1 B1B2 B2B3 B3B4 B4A4 A4A3"/>
    </vehicle>
    <vehicle id="258" depart="72.27">
        <route edges="B3A3 A3A2 A2B2 B2B1"/>
    </vehicle>
    <vehicle id="940" depart="72.30">
        <route edges="D3D2 D2D1 D1C1 C1C2"/>
    </vehicle>
    <vehicle id="1364" depart="72.35">
        <route edges="B0A0 A0A1 A1B1 B1B0"/>
    </vehicle>
    <vehicle id="558" depart="72.57">
        <route edges="B2A2 A2A3"/>
    </vehicle>
    <vehicle id="385" depart="73.12">
        <route edges="C2B2 B2C2 C2D2 D2D1"/>
    </vehicle>
    <vehicle id="481" depart="73.48">
        <route edges="C4C3 C3C2 C2C1 C1B1 B1A1 A1A0 A0B0"/>
    </vehicle>
    <vehicle id="1446" depart="73.50">
        <route edges="C2B2 B2C2 C2D2 D2E2 E2E1 E1D1"/>
    </vehicle>
    <vehicle id="764" depart="73.70">
        <route edges="E3D3 D3C3 C3B3 B3A3 A3A4"/>
    </vehicle>
    <vehicle id="353" depart="74.02">
        <route edges="A2A3 A3A4 A4B4 B4C4 C4D4"/>
    </vehicle>
    <vehicle id="789" depart="74.13">
        <route edges="C4B4 B4B3 B3A3 A3A4 A4B4"/>
    </vehicle>
    <vehicle id="475" depart="74.54">
        <route edges="D3C3 C3B3 B3B4 B4C4"/>
    </vehicle>
    <vehicle id="444" depart="74.79">
        <route edges="B0B1 B1B2 B2B3 B3B2"/>
    </vehicle>
    <vehicle id="360" depart="75.87">
        <route edges="A0A1 A1B1 B1B2 B2B3"/>
    </vehicle>
    <vehicle id="820" depart="76.14">
        <route edges="A2B2 B2C2 C2D2 D2D3 D3E3 E3E2"/>
    </vehicle>
    <vehicle id="479" depart="76.17">
        <route edges="D2D3 D3C3 C3B3 B3A3 A3A2"/>
    </vehicle>
    <vehicle id="616" depart="76.24">
        <route edges="A3A4 A4B4 B4B3 B3B2 B2B1 B1B0"/>
    </vehicle>
    <vehicle id="33" depart="76.33">
        <route edges="E1D1 D1C1 C1C0"/>
    </vehicle>
    <vehicle id="1379" depart="76.72">
        <route edges="C0B0 B0B1 B1B2 B2B3 B3B4 B4C4 C4D4 D4E4 E4E3"/>
    </vehicle>
    <vehicle id="1394" depart="77.60">
        <route edges="B3C3 C3C2 C2C1 C1B1 B1A1 A1A0"/>
    </vehicle>
    <vehicle id="982" depart="77.78">
        <route edges="D3C3 C3C2 C2C1 C1D1 D1D2"/>
    </vehicle>
    <vehicle id="1469" depart="77.85">
        <route edges="B0B1 B1B2 B2B3 B3C3 C3D3 D3E3 E3E2"/>
    </vehicle>
    <vehicle id="464" depart="78.70">
        <route edges="D2D1 D1D0 D0C0 C0B0 B0A0"/>
    </vehicle>
    <vehicle id="363" depart="79.20">
        <route edges="C3C4 C4D4 D4D3 D3D2 D2D1 D1D0 D0C0"/>
    </vehicle>
    <vehicle id="670" depart="79.40">
        <route edges="C1C0 C0C1"/>
    </vehicle>
    <vehicle id="1124" depart="79.41">
        <route edges="D4C4 C4B4 B4C4"/>
    </vehicle>
    <vehicle id="1200" depart="80.08">
        <route edges="B3A3 A3A2 A2B2 B2C2 C2D2 D2D1"/>
    </vehicle>
    <vehicle id="697" depart="80.28">
        <route edges="A2A1 A1B1 B1B2 B2A2"/>
    </vehicle>
    <vehicle id="911" depart="80.38">
        <route edges="E3E4 E4D4 D4C4 C4C3 C3C2 C2C1 C1C0 C0B0 B0B1"/>
    </vehicle>
    <vehicle id="609" depart="80.97">
        <route edges="A3A4 A4B4 B4C4 C4C3 C3D3"/>
    </vehicle>
    <vehicle id="1278" depart="81.65">
        <route edges="A1A2 A2B2 B2C2 C2D2 D2D3 D3C3"/>
    </vehicle>
    <vehicle id="726" depart="81.68">
        <route edges="B3C3 C3C4 C4C3"/>
    </vehicle>
    <vehicle id="866" depart="81.82">
        <route edges="D0D1 D1D0 D0C0 C0C1"/>
    </vehicle>
    <vehicle id="612" depart="81.95">
        <route edges="B0B1 B1C1 C1D1 D1E1"/>
    </vehicle>
    <vehicle id="1183" depart="82.10">
        <route edges="D3C3 C3C2 C2C1 C1C0 C0D0 D0D1"/>
    </vehicle>
    <vehicle id="996" depart="82.23">
        <route edges="B1B2 B2C2 C2D2 D2D1 D1C1"/>
    </vehicle>
    <vehicle id="1150" depart="82.90">
        <route edges="A3B3 B3C3 C3D3 D3D2 D2D1 D1D0"/>
    </vehicle>
    <vehicle id="920" depart="83.00">
        <route edges="C2C1 C1B1 B1A1 A1A2 A2B2"/>
    </vehicle>
    <vehicle id="1255" depart="83.07">
        <route edges="B0B1 B1C1 C1C0 C0C1"/>
    </vehicle>
    <vehicle id="1300" depart="83.08">
        <route edges="D2D1 D1C1 C1B1 B1B2 B2B3 B3A3 A3A2"/>
    </vehicle>
    <vehicle id="932" depart="83.50">
        <route edges="C4D4 D4D3 D3C3"/>
    </vehicle>
    <vehicle id="1057" depart="83.82">
        <route edges="C2C1 C1D1 D1D2 D2E2 E2E1"/>
    </vehicle>
    <vehicle id="831" depart="84.51">
        <route edges="C3D3 D3C3 C3B3 B3A3"/>
    </vehicle>
    <vehicle id="692" depart="85.46">
        <route edges="E0E1 E1E2 E2E3 E3D3 D3D2"/>
    </vehicle>
    <vehicle id="955" depart="85.51">
        <route edges="C2D2 D2C2 C2C1"/>
    </vehicle>
    <vehicle id="92" depart="85.78">
        <route edges="E3E4 E4D4 D4C4 C4C3"/>
    </vehicle>
    <vehicle id="510" depart="85.79">
        <route edges="C2D2 D2D1 D1C1 C1C0 C0D0"/>
    </vehicle>
    <vehicle id="1216" depart="86.13">
        <route edges="B3A3 A3A4 A4B4 B4C4 C4D4"/>
    </vehicle>
    <vehicle id="560" depart="86.41">
        <route edges="A3A2 A2B2 B2B3 B3C3 C3D3 D3D2"/>
    </vehicle>
    <vehicle id="185" depart="86.71">
        <route edges="A3A2 A2B2 B2B3 B3C3 C3D3 D3D2"/>
    </vehicle>
    <vehicle id="55" depart="86.95">
        <route edges="E1D1 D1C1 C1B1 B1B2 B2B3 B3B4"/>
    </vehicle>
    <vehicle id="1495" depart="87.28">
        <route edges="C2D2 D2D3 D3D4 D4C4"/>
    </vehicle>
    <vehicle id="700" depart="87.38">
        <route edges="E3E4 E4D4 D4C4 C4B4 B4A4 A4A3"/>
    </vehicle>
    <vehicle id="120" depart="87.85">
        <route edges="A4B4 B4B3 B3B4"/>
    </vehicle>
    <vehicle id="1021" depart="88.30">
        <route edges="C2C1 C1B1 B1A1 A1A2 A2A3 A3A4"/>
    </vehicle>
    <vehicle id="293" depart="88.85">
        <route edges="A3A2 A2B2 B2C2 C2C1 C1B1"/>
    </vehicle>
    <vehicle id="1293" depart="88.88">
        <route edges="C2C1 C1C2 C2C3 C3C4 C4B4"/>
    </vehicle>
    <vehicle id="1228" depart="89.08">
        <route edges="E3D3"/>
    </vehicle>
    <vehicle id="1053" depart="89.44">
        <route edges="D4D3 D3C3"/>
    </vehicle>
    <vehicle id="882" depart="89.99">
        <route edges="A3A2 A2B2 B2C2"/>
    </vehicle>
    <vehicle id="393" depart="90.62">
        <route edges="B1A1 A1A2 A2B2 B2C2 C2D2 D2C2"/>
    </vehicle>
    <vehicle id="1316" depart="91.12">
        <route edges="A4A3 A3B3 B3B4"/>
    </vehicle>
    <vehicle id="912" depart="91.51">
        <route edges="C0C1 C1C2 C2C3 C3B3"/>
    </vehicle>
    <vehicle id="1465" depart="91.67">
        <route edges="A3A2 A2B2 B2C2 C2C3"/>
    </vehicle>
    <vehicle id="1273" depart="92.25">
        <route edges="A2A3 A3B3 B3C3 C3D3 D3D2 D2D1 D1D0 D0E0"/>
    </vehicle>
    <vehicle id="1119" depart="92.54">