<?xml version="1.0" encoding="UTF-8"?>
<routes>
<trip id="953" depart="0.03" from="A2A3" to="E1E0"/>
<trip id="1449" depart="1.00" from="D3D4" to="A1A0"/>
<trip id="205" depart="2.48" from="B3A3" to="C0C1"/>
<trip id="817" depart="2.54" from="A0A1" to="D3D2"/>
<trip id="41" depart="2.85" from="C0B0" to="A3A2"/>
<trip id="727" depart="2.87" from="C1B1" to="E2D2"/>
<trip id="229" depart="2.97" from="B1B2" to="B1B0"/>
<trip id="991" depart="3.66" from="B3A3" to="C2C3"/>
<trip id="320" depart="3.98" from="C3C4" to="D2D1"/>
<trip id="747" depart="4.17" from="D0E0" to="A4B4"/>
<trip id="689" depart="4.73" from="A1B1" to="C4B4"/>
<trip id="1041" depart="4.76" from="B1B0" to="E1E2"/>
<trip id="1000" depart="6.36" from="A0A1" to="C3C4"/>
<trip id="1490" depart="6.62" from="E3E4" to="A1B1"/>
<trip id="500" depart="7.13" from="C4B4" to="A2A3"/>
<trip id="1154" depart="7.26" from="C1C2" to="B2C2"/>
<trip id="130" depart="7.60" from="E3E4" to="D4C4"/>
<trip id="977" depart="7.80" from="C2D2" to="B2B3"/>
<trip id="260" depart="7.95" from="A1B1" to="D3C3"/>
<trip id="1442" depart="8.06" from="D1D2" to="B4C4"/>
<trip id="567" depart="8.57" from="B3B2" to="E3E2"/>
<trip id="364" depart="8.79" from="C3C2" to="D2E2"/>
<trip id="380" depart="9.06" from="B0A0" to="B4C4"/>
<trip id="7" depart="9.38" from="D0E0" to="C0B0"/>
<trip id="45" depart="9.52" from="E3D3" to="D1D0"/>
<trip id="61" depart="10.14" from="A3A4" to="B1A1"/>
<trip id="968" depart="10.60" from="D3C3" to="D3D2"/>
<trip id="1279" depart="10.94" from="D0E0" to="C4B4"/>
<trip id="713" depart="11.16" from="C2C3" to="B0B1"/>
<trip id="899" depart="11.58" from="D0D1" to="D0C0"/>
<trip id="772" depart="11.71" from="C2B2" to="E2E1"/>
<trip id="651" depart="12.71" from="C2B2" to="A3B3"/>
<trip id="613" depart="12.72" from="D2C2" to="E0E1"/>
<trip id="701" depart="12.83" from="D1E1" to="D1E1"/>
<trip id="207" depart="12.89" from="B3B4" to="D4E4"/>
<trip id="811" depart="13.01" from="D1C1" to="B0B1"/>
<trip id="161" depart="13.33" from="D1D2" to="C3C4"/>
<trip id="804" depart="13.65" from="E2E1" to="E4E3"/>
<trip id="1062" depart="13.86" from="A3B3" to="E2D2"/>
<trip id="1030" depart="14.01" from="B2B1" to="B3B2"/>
<trip id="756" depart="14.08" from="D1E1" to="A1B1"/>
<trip id="78" depart="14.39" from="C1C2" to="D0D1"/>
<trip id="349" depart="15.50" from="A1A2" to="B1A1"/>
<trip id="451" depart="15.74" from="E4D4" to="E2E1"/>
<trip id="879" depart="16.17" from="D2C2" to="B4B3"/>
<trip id="873" depart="16.56" from="B2C2" to="E0E1"/>
<trip id="243" depart="16.57" from="D0E0" to="E1E0"/>
<trip id="1236" depart="16.62" from="B2C2" to="D4D3"/>
<trip id="521" depart="16.84" from="C3C4" to="C3C2"/>
<trip id="490" depart="16.98" from="D3D2" to="E4E3"/>
<trip id="541" depart="17.24" from="B1C1" to="E1D1"/>
<trip id="37" depart="17.75" from="A0B0" to="A4B4"/>
<trip id="749" depart="18.02" from="B0B1" to="B1B0"/>
<trip id="722" depart="19.11" from="B4A4" to="C3C2"/>
<trip id="1321" depart="19.12" from="D1D2" to="E0D0"/>
<trip id="574" depart="19.13" from="A2A3" to="C3D3"/>
<trip id="1418" depart="19.23" from="B0C0" to="A3A4"/>
<trip id="532" depart="19.43" from="C2B2" to="C2C3"/>
<trip id="738" depart="19.50" from="B2A2" to="D0D1"/>
<trip id="690" depart="19.58" from="A4A3" to="D2E2"/>
<trip id="1421" depart="20.24" from="E1E0" to="A1A0"/>
<trip id="848" depart="21.44" from="B1C1" to="D0E0"/>
<trip id="417" depart="22.26" from="D1C1" to="C1D1"/>
<trip id="302" depart="22.32" from="D4E4" to="B4B3"/>
<trip id="750" depart="22.54" from="C4C3" to="B0B1"/>
<trip id="586" depart="22.91" from="B1A1" to="B1B0"/>
<trip id="453" depart="22.99" from="D1D0" to="B3B4"/>
<trip id="263" depart="22.99" from="A2A3" to="C2D2"/>
<trip id="77" depart="23.29" from="B2A2" to="E0D0"/>
<trip id="1292" depart="23.33" from="D0C0" to="A1A0"/>
<trip id="967" depart="23.35" from="A2B2" to="D0C0"/>
<trip id="158" depart="23.55" from="E2D2" to="D1D0"/>
<trip id="316" depart="23.91" from="E2E1" to="D2C2"/>
<trip id="1281" depart="24.42" from="A0B0" to="B3B2"/>
<trip id="538" depart="24.43" from="D2D1" to="A2A3"/>
<trip id="545" depart="24.45" from="A2A1" to="E4E3"/>
<trip id="341" depart="24.84" from="D3C3" to="B0B1"/>
<trip id="1034" depart="25.24" from="C3C2" to="D3E3"/>
<trip id="1045" depart="25.48" from="C3D3" to="C3D3"/>
<trip id="458" depart="25.68" from="C1D1" to="D1E1"/>
<trip id="402" depart="25.83" from="D4D3" to="E2D2"/>
<trip id="1121" depart="26.22" from="A1A0" to="E2E3"/>
<trip id="141" depart="26.30" from="C1D1" to="E0D0"/>
<trip id="404" depart="26.34" from="B2B1" to="C3C2"/>
<trip id="663" depart="26.87" from="E2E1" to="E1D1"/>
<trip id="904" depart="27.06" from="D2D1" to="A3A2"/>
<trip id="976" depart="27.61" from="A3A4" to="A4B4"/>
<trip id="164" depart="28.38" from="C3B3" to="A1A2"/>
<trip id="1235" depart="28.54" from="D4E4" to="D4E4"/>
<trip id="768" depart="28.54" from="D4E4" to="E4D4"/>
<trip id="156" depart="29.16" from="B3B2" to="B1C1"/>
<trip id="177" depart="29.58" from="B4A4" to="D3D4"/>
<trip id="351" depart="29.92" from="A1A2" to="D2E2"/>
<trip id="1333" depart="30.12" from="E0E1" to="D0C0"/>
<trip id="716" depart="30.25" from="B3B4" to="D1C1"/>
<trip id="301" depart="30.33" from="B3C3" to="C1C2"/>
<trip id="943" depart="30.65" from="E1E0" to="B3B2"/>
<trip id="1093" depart="30.77" from="B4C4" to="D4E4"/>
<trip id="1247" depart="31.06" from="D1C1" to="A0B0"/>
<trip id="1482" depart="32.00" from="E2E3" to="C3D3"/>
<trip id="358" depart="32.74" from="E4E3" to="D0E0"/>
<trip id="588" depart="33.17" from="D1D2" to="B2A2"/>
<trip id="277" depart="33.42" from="B4B3" to="A4B4"/>
<trip id="96" depart="33.53" from="B1B2" to="B2B1"/>
<trip id="239" depart="34.05" from="E4D4" to="B1C1"/>
<trip id="1403" depart="34.40" from="D4E4" to="C4C3"/>
<trip id="1239" depart="34.46" from="E3D3" to="A4B4"/>
<trip id="487" depart="35.42" from="B2B3" to="B2C2"/>
<trip id="1162" depart="35.76" from="D0E0" to="C0D0"/>
<trip id="975" depart="36.10" from="B2B1" to="E1D1"/>
<trip id="777" depart="36.34" from="B4B3" to="A1A0"/>
<trip id="484" depart="36.85" from="D1C1" to="B3C3"/>
<trip id="30" depart="37.08" from="D4D3" to="D1D0"/>
<trip id="1431" depart="37.28" from="A1B1" to="C0D0"/>
<trip id="1198" depart="37.52" from="C2C1" to="B4A4"/>
<trip id="1164" depart="37.65" from="E3D3" to="C2C3"/>
<trip id="128" depart="38.17" from="A3A2" to="C2B2"/>
<trip id="568" depart="38.27" from="C0D0" to="A2B2"/>
<trip id="62" depart="38.61" from="B2B1" to="E2E3"/>
<trip id="254" depart="39.36" from="E0E1" to="C4B4"/>
<trip id="646" depart="40.16" from="C2C1" to="C3D3"/>
<trip id="1146" depart="40.67" from="D0D1" to="A1A0"/>
<trip id="771" depart="41.55" from="D1C1" to="D3D2"/>
<trip id="845" depart="41.64" from="B0A0" to="C4D4"/>
<trip id="970" depart="41.84" from="A3A4" to="D3D4"/>
<trip id="83" depart="41.89" from="C1B1" to="A0A1"/>
<trip id="1051" depart="42.19" from="A3B3" to="C1C2"/>
<trip id="337" depart="43.34" from="C2C3" to="E2D2"/>
<trip id="631" depart="43.36" from="D0C0" to="B1B0"/>
<trip id="1222" depart="43.44" from="D4D3" to="E3E4"/>
<trip id="1326" depart="43.55" from="C0C1" to="B0A0"/>
<trip id="1487" depart="44.43" from="A3B3" to="A4B4"/>
<trip id="1067" depart="45.12" from="C0D0" to="E2E3"/>
<trip id="123" depart="45.17" from="B4B3" to="B4C4"/>
<trip id="1072" depart="45.34" from="D3D2" to="C4B4"/>
<trip id="582" depart="45.83" from="D2D1" to="B3C3"/>
<trip id="929" depart="46.32" from="D0D1" to="B3B4"/>
<trip id="159" depart="46.65" from="E0D0" to="D0E0"/>
<trip id="1313" depart="47.19" from="E3E4" to="E2E3"/>
<trip id="213" depart="47.21" from="C1D1" to="E0D0"/>
<trip id="1427" depart="47.85" from="A0B0" to="E2E3"/>
<trip id="179" depart="48.00" from="D4C4" to="D3E3"/>
<trip id="581" depart="48.12" from="A1B1" to="E4E3"/>
<trip id="1126" depart="48.19" from="B0A0" to="E1E2"/>
<trip id="905" depart="48.28" from="C3B3" to="E1D1"/>
<trip id="1008" depart="48.44" from="C0C1" to="C3D3"/>
<trip id="32" depart="48.74" from="A4B4" to="D0C0"/>
<trip id="269" depart="48.77" from="C2D2" to="C1C2"/>
<trip id="1022" depart="49.10" from="D4D3" to="A1A2"/>
<trip id="1123" depart="49.30" from="C2C3" to="D1C1"/>
<trip id="946" depart="49.64" from="E0D0" to="D0C0"/>
<trip id="225" depart="49.73" from="E4E3" to="B3A3"/>
<trip id="1286" depart="49.93" from="A4A3" to="A0A1"/>
<trip id="1346" depart="50.33" from="A2A3" to="A3B3"/>
<trip id="377" depart="50.54" from="B3C3" to="E2D2"/>
<trip id="21" depart="50.63" from="D1D2" to="E0D0"/>
<trip id="424" depart="53.37" from="D4D3" to="D2E2"/>
<trip id="400" depart="53.54" from="D4D3" to="E3D3"/>
<trip id="1104" depart="53.89" from="B3A3" to="C2C1"/>
<trip id="1244" depart="54.45" from="E4E3" to="C3C4"/>
<trip id="107" depart="54.51" from="B1C1" to="C4D4"/>
<trip id="1325" depart="54.58" from="A4A3" to="D3E3"/>
<trip id="823" depart="54.65" from="A3A2" to="E0D0"/>
<trip id="242" depart="54.66" from="E2E1" to="D2E2"/>
<trip id="408" depart="54.70" from="C4C3" to="D3C3"/>
<trip id="980" depart="54.83" from="D1D0" to="A1A2"/>
<trip id="744" depart="54.86" from="B1A1" to="D4C4"/>
<trip id="11" depart="55.11" from="E0D0" to="E3D3"/>
<trip id="808" depart="55.37" from="C1D1" to="B2B3"/>
<trip id="840" depart="56.03" from="D1D2" to="B1C1"/>
<trip id="647" depart="56.71" from="D4C4" to="C1D1"/>
<trip id="452" depart="57.33" from="B2A2" to="B3B2"/>
<trip id="1276" depart="57.74" from="E1E0" to="E3D3"/>
<trip id="244" depart="58.17" from="A2B2" to="C2C3"/>
<trip id="496" depart="58.40" from="B2C2" to="D4D3"/>
<trip id="435" depart="58.54" from="D0E0" to="C0D0"/>
<trip id="1344" depart="58.89" from="B3B4" to="B2B3"/>
<trip id="1004" depart="59.18" from="B2B1" to="B1C1"/>
<trip id="492" depart="59.18" from="E0D0" to="E0E1"/>
<trip id="6" depart="59.81" from="C3D3" to="C4D4"/>
<trip id="847" depart="59.95" from="D3E3" to="B3C3"/>
<trip id="290" depart="60.05" from="D4D3" to="C0D0"/>
<trip id="907" depart="60.19" from="D4D3" to="B2C2"/>
<trip id="705" depart="60.44" from="D3C3" to="D4C4"/>
<trip id="314" depart="60.95" from="D1E1" to="D0D1"/>
<trip id="1002" depart="61.07" from="E1E0" to="A2B2"/>
<trip id="1079" depart="61.21" from="B0C0" to="D1E1"/>
<trip id="1391" depart="61.45" from="A0B0" to="C3C2"/>
<trip id="1105" depart="61.52" from="E3D3" to="C2C3"/>
<trip id="1351" depart="61.87" from="C3C2" to="A4A3"/>
<trip id="1389" depart="62.63" from="C2C1" to="A1B1"/>
<trip id="27" depart="63.35" from="B3C3" to="B3B4"/>
<trip id="46" depart="63.41" from="C1C2" to="D1D0"/>
<trip id="171" depart="64.25" from="E3E2" to="A2A1"/>
<trip id="275" depart="65.14" from="D4D3" to="B2B1"/>
<trip id="206" depart="65.66" from="B3A3" to="D3E3"/>
<trip id="415" depart="65.69" from="B3C3" to="E1E0"/>
<trip id="763" depart="65.84" from="D2C2" to="D2C2"/>
<trip id="779" depart="65.88" from="B2A2" to="B3B2"/>
<trip id="121" depart="65.96" from="C3C4" to="A2B2"/>
<trip id="152" depart="66.02" from="D3E3" to="C2C3"/>
<trip id="1424" depart="66.35" from="A0B0" to="C3B3"/>
<trip id="299" depart="66.53" from="C3D3" to="D4C4"/>
<trip id="1064" depart="66.79" from="A3A4" to="A3A2"/>
<trip id="279" depart="67.48" from="B2C2" to="B3B2"/>
<trip id="961" depart="67.75" from="A3A2" to="C3D3"/>
<trip id="1499" depart="67.99" from="D1C1" to="A1A0"/>
<trip id="1312" depart="68.34" from="B4C4" to="B3C3"/>
<trip id="1454" depart="68.85" from="C3D3" to="E2E3"/>
<trip id="1438" depart="69.09" from="D2D1" to="C3C2"/>
<trip id="1397" depart="69.28" from="B3B2" to="B2A2"/>
<trip id="931" depart="69.41" from="B0B1" to="E1D1"/>
<trip id="1027" depart="69.49" from="B0B1" to="C1C0"/>
<trip id="1096" depart="69.95" from="C1C2" to="D4C4"/>
<trip id="1189" depart="70.30" from="B0B1" to="B4C4"/>
<trip id="191" depart="70.78" from="A4B4" to="E3E2"/>
<trip id="990" depart="71.59" from="E3E2" to="B3B4"/>
<trip id="507" depart="71.84" from="D2D1" to="B1B0"/>
<trip id="580" depart="71.96" from="D1C1" to="E3E2"/>
<trip id="828" depart="72.13" from="C2C1" to="A4A3"/>
<trip id="258" depart="72.27" from="B3A3" to="B2B1"/>
<trip id="940" depart="72.30" from="D3D2" to="C1C2"/>
<trip id="1364" depart="72.35" from="B0A0" to="B1B0"/>
<trip id="558" depart="72.57" from="B2A2" to="A2A3"/>
<trip id="385" depart="73.12" from="C2B2" to="D2D1"/>
<trip id="481" depart="73.48" from="C4C3" to="A0B0"/>
<trip id="1446" depart="73.50" from="C2B2" to="E1D1"/>
<trip id="764" depart="73.70" from="E3D3" to="A3A4"/>
<trip id="353" depart="74.02" from="A2A3" to="C4D4"/>
<trip id="789" depart="74.13" from="C4B4" to="A4B4"/>
<trip id="475" depart="74.54" from="D3C3" to="B4C4"/>
<trip id="444" depart="74.79" from="B0B1" to="B3B2"/>
<trip id="360" depart="75.87" from="A0A1" to="B2B3"/>
<trip id="820" depart="76.14" from="A2B2" to="E3E2"/>
<trip id="479" depart="76.17" from="D2D3" to="A3A2"/>
<trip id="616" depart="76.24" from="A3A4" to="B1B0"/>
<trip id="33" depart="76.33" from="E1D1" to="C1C0"/>
<trip id="1379" depart="76.72" from="C0B0" to="E4E3"/>
<trip id="1394" depart="77.60" from="B3C3" to="A1A0"/>
<trip id="982" depart="77.78" from="D3C3" to="D1D2"/>
<trip id="1469" depart="77.85" from="B0B1" to="E3E2"/>
<trip id="464" depart="78.70" from="D2D1" to="B0A0"/>
<trip id="363" depart="79.20" from="C3C4" to="D0C0"/>
<trip id="670" depart="79.40" from="C1C0" to="C0C1"/>
<trip id="1124" depart="79.41" from="D4C4" to="B4C4"/>
<trip id="1200" depart="80.08" from="B3A3" to="D2D1"/>
<trip id="697" depart="80.28" from="A2A1" to="B2A2"/>
<trip id="911" depart="80.38" from="E3E4" to="B0B1"/>
<trip id="609" depart="80.97" from="A3A4" to="C3D3"/>
<trip id="1278" depart="81.65" from="A1A2" to="D3C3"/>
<trip id="726" depart="81.68" from="B3C3" to="C4C3"/>
<trip id="866" depart="81.82" from="D0D1" to="C0C1"/>
<trip id="612" depart="81.95" from="B0B1" to="D1E1"/>
<trip id="1183" depart="82.10" from="D3C3" to="D0D1"/>
<trip id="996" depart="82.23" from="B1B2" to="D1C1"/>
<trip id="1150" depart="82.90" from="A3B3" to="D1D0"/>
<trip id="920" depart="83.00" from="C2C1" to="A2B2"/>
<trip id="1255" depart="83.07" from="B0B1" to="C0C1"/>
<trip id="1300" depart="83.08" from="D2D1" to="A3A2"/>
<trip id="932" depart="83.50" from="C4D4" to="D3C3"/>
<trip id="1057" depart="83.82" from="C2C1" to="E2E1"/>
<trip id="831" depart="84.51" from="C3D3" to="B3A3"/>
<trip id="692" depart="85.46" from="E0E1" to="D3D2"/>
<trip id="955" depart="85.51" from="C2D2" to="C2C1"/>
<trip id="92" depart="85.78" from="E3E4" to="C4C3"/>
<trip id="510" depart="85.79" from="C2D2" to="C0D0"/>
<trip id="1216" depart="86.13" from="B3A3" to="C4D4"/>
<trip id="560" depart="86.41" from="A3A2" to="D3D2"/>
<trip id="185" depart="86.71" from="A3A2" to="D3D2"/>
<trip id="55" depart="86.95" from="E1D1" to="B3B4"/>
<trip id="1495" depart="87.28" from="C2D2" to="D4C4"/>
<trip id="700" depart="87.38" from="E3E4" to="A4A3"/>
<trip id="120" depart="87.85" from="A4B4" to="B3B4"/>
<trip id="1021" depart="88.30" from="C2C1" to="A3A4"/>
<trip id="293" depart="88.85" from="A3A2" to="C1B1"/>
<trip id="1293" depart="88.88" from="C2C1" to="C4B4"/>
<trip id="1228" depart="89.08" from="E3D3" to="E3D3"/>
<trip id="1053" depart="89.44" from="D4D3" to="D3C3"/>
<trip id="882" depart="89.99" from="A3A2" to="B2C2"/>
<trip id="393" depart="90.62" from="B1A1" to="D2C2"/>
<trip id="1316" depart="91.12" from="A4A3" to="B3B4"/>
<trip id="912" depart="91.51" from="C0C1" to="C3B3"/>
<trip id="1465" depart="91.67" from="A3A2" to="C2C3"/>
<trip id="1273" depart="92.25" from="A2A3" to="D0E0"/>
<trip id="1119" depart="92.54" from="A4B4" to="D1E1"/>
<trip id="208" depart="92.55" from="A1A0" to="B4A4"/>
<trip id="56" depart="92.93" from="C4B4" to="C0D0"/>
<trip id="833" depart="93.38" from="B1C1" to="A3A2"/>
<trip id="1456" depart="93.77" from="D0D1" to="B0B1"/>
<trip id="1118" depart="93.82" from="D0C0" to="B2B3"/>
<trip id="1320" depart="93.87" from="C0D0" to="E4E3"/>
<trip id="1081" depart="94.13" from="A3A2" to="B3A3"/>
<trip id="1026" depart="94.97" from="C4D4" to="B1C1"/>
<trip id="1376" depart="95.00" from="C0C1" to="C2D2"/>
<trip id="1138" depart="95.41" from="C2D2" to="A1B1"/>
<trip id="482" depart="96.02" from="B4B3" to="A2A1"/>
<trip id="815" depart="96.60" from="D3D2" to="A0A1"/>
<trip id="628" depart="96.79" from="B3B4" to="C1C2"/>
<trip id="1009" depart="97.08" from="B1B0" to="A2A1"/>
<trip id="1182" depart="97.09" from="C2D2" to="D2C2"/>
<trip id="289" depart="97.47" from="D2D3" to="D1D2"/>
<trip id="973" depart="97.62" from="B2B1" to="A3A4"/>
<trip id="1085" depart="97.65" from="E2D2" to="C4C3"/>
<trip id="97" depart="97.92" from="E3D3" to="E0E1"/>
<trip id="802" depart="98.32" from="D1E1" to="A3B3"/>
<trip id="1485" depart="99.32" from="D1E1" to="A1A2"/>
<trip id="175" depart="99.34" from="D1C1" to="B1B0"/>
<trip id="540" depart="100.06" from="B3B2" to="E1E0"/>
<trip id="1063" depart="100.26" from="B1C1" to="D3C3"/>
<trip id="746" depart="100.92" from="B3C3" to="E3D3"/>
<trip id="556" depart="101.61" from="A3A2" to="E1E2"/>
<trip id="693" depart="101.91" from="A2B2" to="C1B1"/>
<trip id="639" depart="102.27" from="C3B3" to="D0E0"/>
<trip id="971" depart="102.64" from="C3C4" to="A1B1"/>
<trip id="566" depart="103.25" from="E3E4" to="C1B1"/>
<trip id="34" depart="103.38" from="C1B1" to="C3C2"/>
<trip id="98" depart="103.62" from="D2D3" to="B1B0"/>
<trip id="366" depart="104.30" from="A2A1" to="D0D1"/>
<trip id="995" depart="104.38" from="A2B2" to="D2C2"/>
<trip id="1483" depart="104.85" from="A1B1" to="B4C4"/>
<trip id="765" depart="105.66" from="A1B1" to="C2C3"/>
<trip id="245" depart="105.80" from="A0B0" to="B0C0"/>
<trip id="182" depart="106.47" from="A3A2" to="B2B3"/>
<trip id="462" depart="106.54" from="C0D0" to="D2C2"/>
<trip id="551" depart="106.73" from="B4A4" to="C2D2"/>
<trip id="576" depart="106.85" from="E0D0" to="B3B4"/>
<trip id="902" depart="107.11" from="E3D3" to="E2E1"/>
<trip id="1464" depart="107.29" from="A1A2" to="C1C2"/>
<trip id="329" depart="107.43" from="E1D1" to="B1C1"/>
<trip id="792" depart="107.58" from="D2D1" to="D0D1"/>
<trip id="1437" depart="107.66" from="C4D4" to="A4B4"/>
<trip id="1493" depart="108.53" from="E2E3" to="D4E4"/>
<trip id="1251" depart="109.76" from="C3C4" to="C0C1"/>
<trip id="1136" depart="109.84" from="E0D0" to="B3B2"/>
<trip id="678" depart="110.10" from="C4B4" to="B0A0"/>
<trip id="830" depart="110.34" from="A2A1" to="C1C0"/>
<trip id="1494" depart="110.91" from="B1B0" to="A3B3"/>
<trip id="826" depart="111.04" from="B3C3" to="B3B4"/>
<trip id="267" depart="112.15" from="A4B4" to="C3C4"/>
<trip id="1225" depart="113.95" from="D1D2" to="B2C2"/>
<trip id="732" depart="114.02" from="C2C1" to="D1C1"/>
<trip id="367" depart="114.47" from="C2D2" to="C1C2"/>
<trip id="465" depart="114.90" from="C4D4" to="B0C0"/>
<trip id="618" depart="115.22" from="C2C3" to="B4C4"/>
<trip id="841" depart="115.43" from="C2C3" to="C0D0"/>
<trip id="350" depart="115.69" from="C3B3" to="B1C1"/>
<trip id="889" depart="116.21" from="C4D4" to="C2D2"/>
<trip id="1098" depart="116.93" from="A2A1" to="E0D0"/>
<trip id="1410" depart="117.18" from="E0D0" to="B1C1"/>
<trip id="461" depart="117.29" from="A3A2" to="E4D4"/>
<trip id="272" depart="117.31" from="D3E3" to="B1B2"/>
<trip id="952" depart="117.75" from="D1D0" to="B3C3"/>
<trip id="113" depart="117.79" from="B0B1" to="D0E0"/>
<trip id="859" depart="117.79" from="A2B2" to="B1B2"/>
<trip id="876" depart="117.92" from="B3B2" to="B3A3"/>
<trip id="743" depart="118.31" from="B2C2" to="E3E2"/>
<trip id="1479" depart="118.43" from="B2C2" to="E3D3"/>
<trip id="392" depart="119.58" from="C3B3" to="D0E0"/>
<trip id="593" depart="120.27" from="D0E0" to="D3E3"/>
<trip id="1110" depart="120.44" from="B3A3" to="C1C2"/>
<trip id="478" depart="120.63" from="C2B2" to="B1B2"/>
<trip id="714" depart="120.65" from="E1D1" to="E4D4"/>
<trip id="1060" depart="120.95" from="C4D4" to="E2E1"/>
<trip id="1285" depart="121.58" from="A3B3" to="D3D2"/>
<trip id="273" depart="121.70" from="D4E4" to="C4B4"/>
<trip id="249" depart="121.74" from="D1D0" to="B1B0"/>
<trip id="972" depart="122.21" from="C4B4" to="E3D3"/>
<trip id="509" depart="122.51" from="C0C1" to="B3C3"/>
<trip id="707" depart="122.69" from="A0A1" to="D1D0"/>
<trip id="1301" depart="123.16" from="D3E3" to="E0E1"/>
<trip id="620" depart="123.20" from="D2D3" to="B3B2"/>
<trip id="410" depart="123.78" from="D2C2" to="A0A1"/>
<trip id="742" depart="123.95" from="C3C2" to="B3C3"/>
<trip id="184" depart="124.16" from="A1A0" to="B0C0"/>
<trip id="640" depart="124.21" from="E1D1" to="C3D3"/>
<trip id="1038" depart="124.38" from="E1D1" to="C3C4"/>
<trip id="1365" depart="124.46" from="B2C2" to="C0C1"/>
<trip id="112" depart="124.73" from="A1A0" to="C2C3"/>
<trip id="1248" depart="125.22" from="B1C1" to="E0D0"/>
<trip id="922" depart="126.27" from="B3B2" to="D2E2"/>
<trip id="23" depart="126.65" from="D2C2" to="B2B1"/>
<trip id="1109" depart="126.70" from="E2E1" to="B4B3"/>
<trip id="1491" depart="126.72" from="E1E2" to="D2E2"/>
<trip id="304" depart="127.36" from="B4B3" to="C0C1"/>
<trip id="949" depart="127.78" from="A1B1" to="A4A3"/>
<trip id="379" depart="127.97" from="B1C1" to="D1D0"/>
<trip id="1199" depart="128.33" from="B3B4" to="A2B2"/>
<trip id="687" depart="128.78" from="C3D3" to="C3B3"/>
<trip id="809" depart="129.18" from="B0B1" to="A3B3"/>
<trip id="429" depart="129.40" from="C1C2" to="C0D0"/>
<trip id="359" depart="129.43" from="B2A2" to="B1B2"/>
<trip id="1310" depart="129.51" from="C1D1" to="A4B4"/>
<trip id="679" depart="129.56" from="C3B3" to="D3D2"/>
<trip id="81" depart="130.53" from="B0B1" to="B4C4"/>
<trip id="786" depart="130.61" from="E4D4" to="E3E4"/>
<trip id="216" depart="130.73" from="D4C4" to="D2C2"/>
<trip id="442" depart="130.91" from="D3C3" to="D4E4"/>
<trip id="48" depart="131.89" from="B0C0" to="C2C3"/>
<trip id="552" depart="132.74" from="D4D3" to="C0B0"/>
<trip id="489" depart="133.54" from="C0D0" to="A4A3"/>
<trip id="347" depart="133.86" from="A2B2" to="E1E0"/>
<trip id="603" depart="134.04" from="C3C2" to="D2D3"/>
<trip id="1192" depart="134.10" from="B2B3" to="A3B3"/>
<trip id="1226" depart="134.67" from="E1D1" to="E2D2"/>
<trip id="1409" depart="134.74" from="B3A3" to="E1E2"/>
<trip id="891" depart="134.82" from="B4C4" to="E4D4"/>
<trip id="17" depart="134.86" from="B2B1" to="E2E3"/>
<trip id="919" depart="135.25" from="D4E4" to="C3C2"/>
<trip id="683" depart="136.26" from="B3A3" to="B4A4"/>
<trip id="1303" depart="136.49" from="A4A3" to="C3B3"/>
<trip id="300" depart="136.69" from="E4E3" to="B1B2"/>
<trip id="132" depart="137.26" from="C3B3" to="C1C2"/>
<trip id="1455" depart="137.53" from="C0C1" to="D3D2"/>
<trip id="1205" depart="138.28" from="C1B1" to="E4E3"/>
<trip id="407" depart="138.66" from="C1B1" to="E3D3"/>
<trip id="989" depart="138.82" from="B2B3" to="C0C1"/>
<trip id="264" depart="138.83" from="C3C2" to="C2B2"/>
<trip id="307" depart="139.46" from="E2E1" to="A1A0"/>
<trip id="39" depart="139.75" from="A4A3" to="C4D4"/>
<trip id="1387" depart="139.91" from="A3B3" to="B4C4"/>
<trip id="389" depart="140.39" from="E2E3" to="D3E3"/>
<trip id="214" depart="140.44" from="B2C2" to="E4E3"/>
<trip id="1322" depart="140.69" from="E1D1" to="B4A4"/>
<trip id="1058" depart="140.98" from="A3B3" to="D4D3"/>
<trip id="311" depart="141.15" from="E0D0" to="B3B2"/>
<trip id="1302" depart="141.30" from="E1E0" to="B2A2"/>
<trip id="73" depart="141.44" from="A3B3" to="C0D0"/>
<trip id="388" depart="141.68" from="D4E4" to="C2C1"/>
<trip id="854" depart="142.17" from="E4E3" to="C2B2"/>
<trip id="22" depart="142.67" from="A2A1" to="D2C2"/>
<trip id="898" depart="142.68" from="B2B1" to="C2D2"/>
<trip id="1232" depart="143.30" from="B0C0" to="E3E4"/>
<trip id="1467" depart="143.39" from="C1C0" to="B3C3"/>
<trip id="250" depart="144.60" from="C1C2" to="B1A1"/>
<trip id="217" depart="144.94" from="E1E2" to="C1C0"/>
<trip id="798" depart="145.29" from="E3E2" to="B1A1"/>
<trip id="1362" depart="145.54" from="B4C4" to="E0E1"/>
<trip id="209" depart="145.77" from="B0B1" to="A4A3"/>
<trip id="370" depart="146.56" from="B1B2" to="B2C2"/>
<trip id="79" depart="146.84" from="B1B2" to="D2C2"/>
<trip id="1356" depart="147.28" from="B0C0" to="D1D2"/>
<trip id="1144" depart="147.30" from="D1D0" to="A2A3"/>
<trip id="776" depart="147.82" from="C2B2" to="A1A0"/>
<trip id="759" depart="149.44" from="E4E3" to="A3A2"/>
<trip id="691" depart="149.77" from="C3D3" to="A3A2"/>
<trip id="1460" depart="150.25" from="C2D2" to="C2C1"/>
<trip id="921" depart="150.75" from="E2E3" to="C0B0"/>
<trip id="736" depart="150.99" from="D1D2" to="B2B3"/>
<trip id="1206" depart="151.47" from="E1E2" to="B1A1"/>
<trip id="1195" depart="152.46" from="C0C1" to="C2C3"/>
<trip id="1317" depart="152.89" from="D0D1" to="C2C3"/>
<trip id="1220" depart="153.04" from="C1C2" to="B4A4"/>
<trip id="1283" depart="154.14" from="C3C4" to="A0A1"/>
<trip id="504" depart="154.91" from="B3B2" to="B3A3"/>
<trip id="441" depart="155.28" from="B1B0" to="A4A3"/>
<trip id="1219" depart="155.40" from="D0D1" to="D4C4"/>
<trip id="659" depart="155.75" from="D4C4" to="C4D4"/>
<trip id="376" depart="155.94" from="D4D3" to="C2D2"/>
<trip id="1128" depart="156.27" from="E3D3" to="C2B2"/>
<trip id="333" depart="156.79" from="D4D3" to="B1B2"/>
<trip id="13" depart="158.09" from="C0B0" to="C3D3"/>
<trip id="1451" depart="158.39" from="A1A0" to="D0E0"/>
<trip id="247" depart="159.03" from="A2A1" to="D3D2"/>
<trip id="1296" depart="159.72" from="B1C1" to="D4E4"/>
<trip id="106" depart="159.85" from="B3B2" to="D2D1"/>
<trip id="709" depart="159.91" from="D2E2" to="C4B4"/>
<trip id="449" depart="160.26" from="D2D1" to="B0C0"/>
<trip id="240" depart="160.63" from="B3B2" to="D2D1"/>
<trip id="1031" depart="161.10" from="D3E3" to="D0E0"/>
<trip id="852" depart="161.70" from="A4B4" to="B3A3"/>
<trip id="498" depart="161.74" from="C1C2" to="A3A4"/>
<trip id="334" depart="161.96" from="B2B1" to="E4E3"/>
<trip id="1158" depart="161.99" from="D1D2" to="E2E1"/>
<trip id="735" depart="162.03" from="D1C1" to="E0E1"/>
<trip id="1472" depart="162.57" from="D1C1" to="A0A1"/>
<trip id="168" depart="163.34" from="B3B2" to="C1D1"/>
<trip id="1185" depart="163.61" from="B4A4" to="C1C0"/>
<trip id="348" depart="163.67" from="E2D2" to="A2A1"/>
<trip id="118" depart="164.27" from="E1E2" to="D2E2"/>
<trip id="1414" depart="164.77" from="C4D4" to="D4D3"/>
<trip id="324" depart="164.94" from="A2A3" to="D1C1"/>
<trip id="844" depart="165.61" from="C1C2" to="C4D4"/>
<trip id="869" depart="165.62" from="C1C0" to="C2B2"/>
<trip id="390" depart="165.91" from="B2A2" to="B2A2"/>
<trip id="1412" depart="167.66" from="D4E4" to="D1E1"/>
<trip id="1481" depart="167.83" from="A4B4" to="B0A0"/>
<trip id="1420" depart="167.95" from="B1C1" to="C1C2"/>
<trip id="622" depart="168.00" from="D2C2" to="C1B1"/>
<trip id="945" depart="169.30" from="E1E2" to="A2B2"/>
<trip id="1266" depart="169.99" from="E1D1" to="D1C1"/>
<trip id="1340" depart="170.21" from="A2B2" to="A1A2"/>
<trip id="685" depart="170.56" from="E0E1" to="E1E2"/>
<trip id="396" depart="171.85" from="B3C3" to="A4B4"/>
<trip id="1432" depart="172.05" from="C3C4" to="A3B3"/>
<trip id="1250" depart="172.17" from="D3E3" to="B4A4"/>
<trip id="248" depart="172.87" from="A1A2" to="E1E2"/>
<trip id="1042" depart="173.94" from="A2A3" to="B2A2"/>
<trip id="591" depart="174.13" from="C0C1" to="C1C2"/>
<trip id="737" depart="174.52" from="C4B4" to="D2D1"/>
<trip id="423" depart="174.55" from="C1B1" to="B2C2"/>
<trip id="1441" depart="175.31" from="D0E0" to="D1D2"/>
<trip id="397" depart="175.40" from="A3A2" to="C1B1"/>
<trip id="1097" depart="175.46" from="D0E0" to="C4B4"/>
<trip id="788" depart="175.55" from="B1A1" to="C3D3"/>
<trip id="1207" depart="175.72" from="B0C0" to="D1E1"/>
<trip id="590" depart="176.03" from="E3E2" to="A2A1"/>
<trip id="724" depart="176.10" from="E1E2" to="A4B4"/>
<trip id="1392" depart="176.53" from="D2D3" to="D3D2"/>
<trip id="133" depart="176.57" from="E0D0" to="D4D3"/>
<trip id="657" depart="177.04" from="A0A1" to="E2E1"/>
<trip id="202" depart="178.03" from="D3D2" to="E3E2"/>
<trip id="371" depart="178.04" from="B4A4" to="B4B3"/>
<trip id="793" depart="178.26" from="B1B2" to="D1E1"/>
<trip id="684" depart="178.38" from="D0E0" to="E0E1"/>
<trip id="10" depart="178.57" from="B1B2" to="D4C4"/>
<trip id="913" depart="179.10" from="D1C1" to="B3A3"/>
<trip id="354" depart="179.54" from="E3E4" to="B1B0"/>
<trip id="122" depart="179.77" from="B4A4" to="D1D0"/>
<trip id="459" depart="179.89" from="C2C3" to="B3C3"/>
<trip id="448" depart="180.42" from="E3E4" to="B1A1"/>
<trip id="1028" depart="180.46" from="D4E4" to="B2A2"/>
<trip id="1399" depart="180.49" from="B2C2" to="A1A2"/>
<trip id="131" depart="180.85" from="E2E3" to="A3B3"/>
<trip id="160" depart="181.65" from="C4B4" to="B3B2"/>
<trip id="571" depart="181.83" from="B2A2" to="B2A2"/>
<trip id="1284" depart="182.18" from="B0A0" to="E2D2"/>
<trip id="632" depart="182.51" from="C2C3" to="C1D1"/>
<trip id="443" depart="183.01" from="B2B3" to="C3C2"/>
<trip id="1367" depart="183.36" from="E1D1" to="E1E2"/>
<trip id="862" depart="183.50" from="C3B3" to="A1A2"/>
<trip id="673" depart="183.57" from="A2A3" to="D0C0"/>
<trip id="1395" depart="183.60" from="E1D1" to="C2C1"/>
<trip id="770" depart="183.78" from="B1B2" to="A1A0"/>
<trip id="328" depart="184.11" from="E3E4" to="A1B1"/>
<trip id="993" depart="184.25" from="B3B4" to="E3E2"/>
<trip id="1024" depart="184.64" from="B3B4" to="B3B4"/>
<trip id="295" depart="185.27" from="B0C0" to="C1C0"/>
<trip id="1061" depart="185.28" from="C3C2" to="B2A2"/>
<trip id="1134" depart="185.29" from="D4C4" to="C0D0"/>
<trip id="999" depart="185.32" from="E2E3" to="A2A1"/>
<trip id="1102" depart="185.54" from="C1D1" to="C3C2"/>
<trip id="1148" depart="185.67" from="D1C1" to="E0D0"/>
<trip id="94" depart="185.85" from="C1D1" to="D1C1"/>
<trip id="740" depart="186.46" from="A1A2" to="A0B0"/>
<trip id="711" depart="186.69" from="C2C3" to="C0B0"/>
<trip id="934" depart="186.98" from="B3A3" to="D1D2"/>
<trip id="1262" depart="187.30" from="A0A1" to="C3B3"/>
<trip id="1332" depart="187.55" from="E2E1" to="C1C2"/>